52

P      0.068800   -1.094800    0.313800
P     -3.013600    2.098200    0.028000
C      0.134400   -1.009500    2.138900
C     -0.874500   -0.383400    2.884900
C     -0.766400   -0.283900    4.270600
H     -1.556200    0.198000    4.840500
C      0.354000   -0.805600    4.923000
H      0.436700   -0.726800    6.003500
C      1.361900   -1.432600    4.188400
H      2.230400   -1.845300    4.693500
H     -1.751900    0.012300    2.379500
C      1.251700   -1.539000    2.801300
H      2.024900   -2.042000    2.224500
C     -1.529100   -0.210500   -0.098400
C     -1.404900    1.226800    0.424000
C     -0.200900   -2.824500   -0.165800
C      0.873500   -3.533500   -0.721400
H      1.796200   -3.026500   -0.987500
C      0.792900   -4.914200   -0.887100
H      1.634900   -5.456100   -1.309300
C     -0.350700   -5.603000   -0.480400
C     -1.418600   -4.902400    0.080600
H     -2.299900   -5.437000    0.422800
H     -0.401400   -6.683200   -0.581100
C     -1.347200   -3.519000    0.236800
H     -2.165900   -2.988500    0.709200
C     -3.204100    2.022200   -1.784500
C     -2.253300    1.400100   -2.606300
C     -2.474000    1.283900   -3.979300
H     -1.725500    0.804800   -4.604700
C     -3.647700    1.784100   -4.543700
H     -3.818100    1.693600   -5.613000
C     -4.602200    2.400700   -3.730900
H     -5.521800    2.786600   -4.161300
H     -1.333000    1.004500   -2.188400
C     -4.387100    2.517700   -2.359300
H     -5.138300    2.988600   -1.733800
C     -2.613400    3.838800    0.430700
C     -1.327300    4.139200    0.902200
H     -0.608900    3.343500    1.081100
C     -0.964600    5.458300    1.173400
H      0.030800    5.674400    1.551300
C     -1.886900    6.487600    0.983500
C     -3.171800    6.196200    0.517800
H     -3.893900    6.995900    0.376800
H     -1.609500    7.514400    1.206200
C     -3.534300    4.878300    0.240600
H     -4.539200    4.654800   -0.108100
H     -0.597300    1.742000   -0.108000
H     -1.189200    1.259300    1.496800
H     -1.648600   -0.204000   -1.186700
H     -2.391500   -0.730500    0.330400
52

P      0.068800   -1.094800    0.313800
P      0.044600    2.012200   -0.462700
C      0.134400   -1.009500    2.138900
C     -0.422800   -2.012600    2.944800
C     -0.407900   -1.889700    4.332800
H     -0.837100   -2.675200    4.948900
C      0.160500   -0.760200    4.927900
H      0.171000   -0.666000    6.010200
C      0.719700    0.242000    4.133200
H      1.168600    1.117700    4.593200
H     -0.854800   -2.897100    2.483200
C      0.711500    0.117000    2.743300
H      1.161300    0.885900    2.118700
C     -1.529100   -0.210500   -0.098400
C     -1.404900    1.226800    0.424000
C     -0.200900   -2.824500   -0.165800
C      0.593700   -3.810700    0.435600
H      1.438100   -3.539000    1.062100
C      0.275000   -5.158200    0.284100
H      0.891100   -5.914600    0.762600
C     -0.851000   -5.533300   -0.450200
C     -1.649000   -4.554900   -1.043200
H     -2.540800   -4.840400   -1.593500
H     -1.117100   -6.582300   -0.542700
C     -1.326700   -3.205800   -0.904600
H     -1.974300   -2.451300   -1.336100
C     -0.364400    1.980500   -2.239900
C     -0.459900    3.153900   -3.001700
C     -0.688300    3.087100   -4.376800
H     -0.766100    4.005000   -4.953200
C     -0.819400    1.848100   -5.004300
H     -0.998000    1.797400   -6.075000
C     -0.720500    0.674200   -4.253200
H     -0.814400   -0.294600   -4.735300
H     -0.361600    4.128400   -2.533900
C     -0.490900    0.735700   -2.880400
H     -0.404900   -0.180900   -2.306300
C      1.363000    0.766000   -0.215900
C      1.515800   -0.246900   -1.173500
H      0.824400   -0.321000   -2.008800
C      2.538900   -1.186900   -1.050500
H      2.636600   -1.974100   -1.792800
C      3.412800   -1.127400    0.035200
C      3.264700   -0.123600    0.996100
H      3.939700   -0.080600    1.846600
H      4.202600   -1.866500    0.138800
C      2.245900    0.820500    0.871500
H      2.125800    1.591100    1.628600
H     -1.180700    1.209300    1.496400
H     -2.323300    1.802700    0.271300
H     -1.648600   -0.204000   -1.186700
H     -2.391500   -0.730500    0.330400
