61

Pd     1.288069    1.670956    0.000000
P      4.309195    0.773243    0.000000
P      1.164507    3.917930    0.000000
C      5.239622    1.560108    1.362981
C      4.658962    2.536285    2.185362
C      5.412515    3.158971    3.178422
H      4.951986    3.910106    3.814430
C      6.755322    2.814562    3.355469
H      7.341398    3.301387    4.130095
C      7.340715    1.842149    2.542846
H      8.382166    1.567357    2.682876
H      3.611366    2.796422    2.056093
C      6.585364    1.212845    1.552425
H      7.030284    0.441574    0.927339
C      2.630236    1.595882    0.097686
C      2.843706    3.099516   -0.120655
C      4.019812   -0.964468    0.437306
C      4.757925   -1.948872   -0.234889
H      5.379695   -1.692552   -1.087493
C      4.748975   -3.265670    0.219256
H      5.332414   -4.019409   -0.302616
C      4.021694   -3.608348    1.360003
C      3.292702   -2.630214    2.036610
H      2.746530   -2.886455    2.939730
H      4.039423   -4.628567    1.732001
C      3.288785   -1.313660    1.578395
H      2.751033   -0.553211    2.132834
C      0.130625    3.158333   -1.296658
C      0.623725    2.162497   -2.151963
C     -0.219882    1.542016   -3.074281
H      0.177628    0.776230   -3.734941
C     -1.564299    1.907231   -3.148315
H     -2.220015    1.423830   -3.867335
C     -2.064403    2.894923   -2.296101
H     -3.111438    3.180219   -2.342493
H      1.666318    1.863361   -2.111861
C     -1.226424    3.516205   -1.372498
H     -1.625395    4.274842   -0.707223
C      1.529070    5.620962   -0.564617
C      2.844428    5.937858   -0.933421
H      3.636887    5.201963   -0.825210
C      3.155939    7.208571   -1.416509
H      4.181932    7.443955   -1.685324
C      2.156991    8.176027   -1.527368
C      0.844559    7.869492   -1.158156
H      0.066792    8.624323   -1.236506
H      2.400793    9.170259   -1.891962
C      0.530199    6.597498   -0.680334
H     -0.489184    6.367868   -0.381173
H      3.236049    3.271720   -1.129162
H      3.546433    3.526314    0.602187
H      1.999670    1.187957   -0.698997
H      2.140860    1.384864    1.053712
C     -0.551278    0.867843   -0.000000
H     -0.874746    0.649839   -1.029560
H     -0.914106    0.076565    0.683698
H     -0.860902    1.877126    0.345861
C      1.118237   -0.406217   -0.000000
H      2.156089   -0.729685    0.174302
H      0.468588   -0.769045    0.819464
H      0.730033   -0.715841   -0.993766
61

Pd     2.884944    0.786873   -0.000000
P      5.475043    0.155979   -0.000000
P      3.210425    2.420597    0.000000
C      4.490673   -1.337858    0.376877
C      4.868659   -2.606476   -0.085606
C      4.065955   -3.716646    0.169461
H      4.370421   -4.696531   -0.188209
C      2.875243   -3.567835    0.885738
H      2.250579   -4.434474    1.083446
C      2.492639   -2.308932    1.352036
H      1.571243   -2.191412    1.915224
H      5.800567   -2.725189   -0.632867
C      3.298963   -1.197444    1.103139
H      3.015628   -0.216509    1.478825
C      4.720568    0.773155   -1.598450
C      3.246088    1.090165   -1.316366
C      7.158746   -0.366094   -0.432665
C      7.800684   -1.291899    0.401878
H      7.362367   -1.581291    1.352386
C      8.986294   -1.899674   -0.004591
H      9.470825   -2.623558    0.644949
C      9.530726   -1.606058   -1.255654
C      8.890772   -0.691814   -2.092514
H      9.296313   -0.479754   -3.077509
H     10.438540   -2.102886   -1.585505
C      7.710766   -0.071856   -1.684599
H      7.200079    0.607488   -2.357310
C      4.080351    3.860775   -0.704161
C      3.450085    5.102614   -0.868256
C      4.170700    6.205521   -1.328517
H      3.667427    7.160053   -1.456633
C      5.527948    6.079451   -1.625248
H      6.087824    6.938802   -1.984305
C      6.164476    4.846821   -1.459636
H      7.222540    4.742022   -1.681736
H      2.394933    5.223001   -0.643955
C      5.449701    3.743259   -0.998846
H      5.954087    2.792323   -0.862981
C      4.321044    1.722748    1.277355
C      5.688455    2.027198    1.215649
H      6.083148    2.614026    0.390361
C      6.561740    1.557718    2.196681
H      7.620758    1.790196    2.128325
C      6.076951    0.772954    3.243157
C      4.716255    0.461553    3.309593
H      4.338328   -0.156214    4.119752
H      6.758224    0.396237    4.001271
C      3.840834    0.935024    2.332728
H      2.785624    0.678745    2.380703
H      2.749501    0.199465   -0.915533
H      2.712239    1.408610   -2.217496
H      5.248140    1.684081   -1.899449
H      4.836580    0.037927   -2.400936
C      0.841733    1.337979   -0.000000
H      0.518265    1.119974   -1.029560
H      0.478905    0.546700    0.683698
H      0.532109    2.347262    0.345861
C      1.303118   -0.625986   -0.000000
H      2.340971   -0.949454    0.174302
H      0.653469   -0.988814    0.819464
H      0.914915   -0.935610   -0.993766
