48

H         -2.74951       -2.69869        1.98495
C         -2.59801       -1.86721        1.30809
C         -3.65344       -1.41666        0.52232
H         -4.62098       -1.89780        0.58694
C         -3.46848       -0.33537       -0.33441
H         -4.30669        0.01360       -0.92349
C         -2.21855        0.29756       -0.42881
C         -1.12934       -0.15921        0.36051
C         -1.35068       -1.24363        1.23882
H         -0.59784       -1.63228        1.89401
P          0.50048        0.76351        0.24976
S         -2.05697        1.73077       -1.52390
C         -2.70340        0.93970       -3.03485
H         -2.54992       -0.15688       -3.01220
H         -3.78406        1.16490       -3.14755
H         -2.14119        1.32686       -3.90887
C          1.44570        0.03334       -1.21444
C          2.52475       -0.89576       -0.65487
C          2.97759       -0.25039        0.65409
C          1.68034       -0.10288        1.44873
C          0.64838       -0.59515       -2.33763
C         -0.09743       -1.77191       -2.13434
H         -0.13164       -2.24370       -1.16203
C         -0.79800       -2.35915       -3.19190
H         -1.36759       -3.26426       -3.02594
C         -0.76081       -1.78182       -4.46322
H         -1.30294       -2.23812       -5.28119
C         -0.02334       -0.61533       -4.67829
H          0.00619       -0.16917       -5.66389
C          0.67872       -0.02432       -3.62318
H          1.24945        0.87599       -3.81344
C          1.86256        0.56705        2.80150
C          1.20892        1.76557        3.16169
H          0.54246        2.27691        2.48324
C          1.40949        2.33199        4.42455
H          0.90414        3.25158        4.69027
C          2.25813        1.71547        5.34496
H          2.41010        2.15624        6.32174
C          2.90867        0.52895        5.00567
H          3.56480        0.04916        5.72044
C          2.71280       -0.04210        3.74534
H          3.22488       -0.96603        3.50806
H          2.00190        0.91689       -1.60052
H          3.35495       -1.04377       -1.37861
H          2.09821       -1.89502       -0.41508
H          3.43336        0.74627        0.45820
H          3.72237       -0.88969        1.17403
H          1.35650       -1.14040        1.62493
