61

Pd     1.346900    1.896900    0.047300
P      3.656200    2.143600   -0.035300
P      1.303100    4.220400    0.006400
C      4.925600    1.701400   -1.265900
C      6.263200    2.077900   -1.194200
C      7.145600    1.676800   -2.180600
H      8.185300    1.965400   -2.120200
C      6.702500    0.905100   -3.243500
H      7.398500    0.594800   -4.009100
C      5.370400    0.535000   -3.325100
H      5.024200   -0.062100   -4.156000
H      6.618300    2.680300   -0.369000
C      4.485700    0.933200   -2.339600
H      3.438600    0.654500   -2.385600
C      4.015800    3.939100    0.327900
C      3.019700    4.780000   -0.467500
C      4.209300    1.366600    1.517200
C      3.251100    1.383000    2.533100
H      2.265500    1.827800    2.334200
C      3.528900    0.812900    3.759900
H      2.786600    0.825700    4.544500
C      4.758400    0.208800    3.977700
C      5.699400    0.166100    2.963700
H      6.648900   -0.322800    3.128200
H      4.976000   -0.242700    4.934600
C      5.429100    0.740200    1.732500
H      6.160400    0.683300    0.939100
C      0.387600    4.599600   -1.522300
C     -0.389200    5.726000   -1.756000
C     -1.057200    5.862000   -2.961800
H     -1.664300    6.737800   -3.140600
C     -0.957400    4.879900   -3.932100
H     -1.483600    4.991900   -4.868700
C     -0.198900    3.743100   -3.695100
H     -0.139000    2.967400   -4.444600
H     -0.488800    6.487000   -0.995300
C      0.464800    3.598300   -2.492800
H      1.034400    2.683300   -2.275500
C      0.768800    5.479600    1.210900
C      0.984600    6.847800    1.078800
H      1.499800    7.239600    0.212300
C      0.535000    7.713900    2.058900
H      0.701000    8.776600    1.953200
C     -0.127500    7.225100    3.174000
C     -0.340400    5.863800    3.313900
H     -0.853600    5.482300    4.184400
H     -0.475500    7.908500    3.934800
C      0.108400    4.995000    2.336100
H     -0.045400    3.925400    2.428400
H      3.147200    4.592200   -1.540300
H      3.159700    5.847100   -0.278700
H      3.863400    4.099200    1.402000
H      5.046700    4.199800    0.076500
C     -0.658100    1.678600    0.400700
H     -1.142600    0.929000   -0.232500
H     -0.807500    1.375000    1.448600
H     -1.194500    2.627600    0.248600
C      1.372100   -0.135900   -0.196500
H      2.391500   -0.536600   -0.087300
H      0.736400   -0.673500    0.514100
H      1.022500   -0.384700   -1.210500
61

Pd     1.002400    0.963200   -0.691900
P      3.320500    1.176800   -0.408400
P      1.035000    2.986700    0.495100
C      4.802400    0.655600   -1.325500
C      4.996300   -0.716800   -1.473800
C      6.064400   -1.196500   -2.205200
H      6.214300   -2.261200   -2.308300
C      6.942000   -0.310200   -2.810600
H      7.778700   -0.683400   -3.382500
C      6.738900    1.053800   -2.689600
H      7.415400    1.745400   -3.170700
H      4.298800   -1.398700   -1.003900
C      5.669600    1.538900   -1.956900
H      5.514800    2.605400   -1.878800
C      3.775700    2.875100    0.199700
C      2.720700    3.344400    1.194400
C      3.547700    0.248900    1.150300
C      2.433000   -0.329000    1.753200
H      1.451100   -0.257300    1.259000
C      2.567100   -1.002200    2.955300
H      1.701700   -1.450300    3.421200
C      3.810100   -1.105100    3.558100
C      4.923200   -0.538800    2.956400
H      5.893600   -0.625800    3.423800
H      3.914700   -1.632000    4.495300
C      4.795300    0.136600    1.757000
H      5.665700    0.569200    1.281400
C      1.079800    4.102100   -0.952500
C      1.166800    5.484900   -0.828300
C      1.234000    6.274500   -1.961600
H      1.299400    7.348900   -1.865300
C      1.215800    5.691900   -3.219400
H      1.268300    6.314500   -4.100700
C      1.123300    4.315300   -3.348000
H      1.102300    3.863600   -4.329000
H      1.170400    5.939700    0.153600
C      1.053400    3.519100   -2.218200
H      0.960400    2.417500   -2.288200
C     -0.078800    3.908200    1.598000
C     -1.317300    4.275500    1.074800
H     -1.539900    4.044800    0.040400
C     -2.243500    4.927000    1.864700
H     -3.198000    5.217100    1.450400
C     -1.948700    5.204100    3.190800
C     -0.730700    4.817100    3.723600
H     -0.505200    5.022000    4.760400
H     -2.671500    5.714000    3.810400
C      0.200900    4.164400    2.935200
H      1.144100    3.856700    3.363400
H      2.822600    4.413000    1.409200
H      2.821100    2.782900    2.129900
H      3.789200    3.547800   -0.665000
H      4.772100    2.859300    0.652800
C     -1.022700    0.645600   -0.579200
H     -1.533600    1.193800   -1.382200
H     -1.323300   -0.404500   -0.643200
H     -1.384500    1.039400    0.382300
C      1.067600   -0.614500   -2.002100
H      1.274600   -1.544600   -1.456500
H      0.161500   -0.765400   -2.594500
H      1.900900   -0.439400   -2.700200
61

Pd     1.410200    1.404700   -0.289200
P      3.700500    1.148000    0.082600
P      1.811900    3.539700    0.624700
C      3.962900   -0.499200    0.808300
C      2.868700   -0.974800    1.532300
C      2.923900   -2.213600    2.138900
H      2.077300   -2.582000    2.699600
C      4.065600   -2.991700    2.013400
H      4.109800   -3.963900    2.482300
C      5.141800   -2.533200    1.273300
H      6.022400   -3.149500    1.162300
H      1.959100   -0.364000    1.582900
C      5.095200   -1.288500    0.666900
H      5.930600   -0.941300    0.075400
C      4.009800    2.184000    1.596100
C      3.548200    3.611500    1.321400
C      5.165400    1.489100   -0.947400
C      4.913400    1.699100   -2.299900
H      3.891400    1.629600   -2.656300
C      5.948500    1.990700   -3.169000
H      5.746400    2.155100   -4.217200
C      7.245200    2.073400   -2.689600
C      7.503400    1.863400   -1.343900
H      8.516700    1.926000   -0.973300
H      8.058000    2.301900   -3.363200
C      6.469800    1.574200   -0.471900
H      6.682000    1.410800    0.575700
C      2.077100    4.410100   -0.958500
C      2.574600    5.707300   -1.033400
C      2.799000    6.285900   -2.268900
H      3.181800    7.294700   -2.328700
C      2.534300    5.576300   -3.430300
H      2.712500    6.035100   -4.391900
C      2.040200    4.283900   -3.359900
H      1.832700    3.734200   -4.266600
H      2.776900    6.260000   -0.125300
C      1.809400    3.699700   -2.126500
H      1.409000    2.671500   -2.027700
C      0.922800    4.784300    1.612200
C      0.995600    4.732200    3.001800
H      1.631800    3.997400    3.478700
C      0.253100    5.605200    3.773700
H      0.322700    5.565100    4.851300
C     -0.587300    6.524400    3.166700
C     -0.694200    6.555600    1.785900
H     -1.363000    7.259100    1.311600
H     -1.167800    7.206600    3.770100
C      0.048500    5.684500    1.010500
H     -0.044700    5.701400   -0.066900
H      3.576500    4.218600    2.229900
H      4.197300    4.075700    0.571100
H      3.400000    1.742900    2.394800
H      5.059500    2.146900    1.900700
C     -0.630200    1.501100   -0.161400
H     -1.212900    0.830100   -0.796700
H     -0.877800    1.276300    0.890100
H     -0.959800    2.531200   -0.367300
C      1.149300   -0.308000   -1.397900
H      0.540500   -1.057600   -0.882300
H      0.658300   -0.068800   -2.351000
H      2.122700   -0.766500   -1.623000
61

Pd     1.535100    1.597200   -0.206800
P      3.841500    1.722300    0.099600
P      1.572000    3.895400    0.111500
C      5.062100    1.091900    1.299000
C      4.575100    0.304500    2.336600
C      5.437100   -0.209200    3.289000
H      5.054400   -0.821400    4.092500
C      6.792300    0.063600    3.209000
H      7.469600   -0.337400    3.948600
C      7.283200    0.853300    2.180400
H      8.341300    1.065200    2.121000
H      3.511100    0.101900    2.384100
C      6.424100    1.369500    1.228200
H      6.812100    1.983300    0.426400
C      4.287900    3.536000    0.009800
C      3.247600    4.310800    0.816500
C      4.431100    1.131700   -1.519400
C      3.596400    1.465700   -2.589400
H      2.691000    2.056300   -2.401400
C      3.892200    1.029800   -3.865800
H      3.245100    1.289900   -4.690900
C      5.012700    0.241600   -4.084400
C      5.823600   -0.118400   -3.022400
H      6.683300   -0.751200   -3.189900
H      5.242500   -0.105400   -5.081100
C      5.534800    0.319000   -1.740000
H      6.160000    0.012700   -0.913500
C      1.241900    5.289900   -1.014900
C      1.487500    6.626000   -0.714000
C      1.202500    7.606200   -1.646900
H      1.390200    8.643800   -1.409700
C      0.677100    7.263700   -2.883100
H      0.457100    8.035300   -3.606200
C      0.437500    5.935000   -3.191500
H      0.032100    5.667200   -4.156200
H      1.898800    6.903200    0.247100
C      0.720700    4.952300   -2.260500
H      0.540600    3.906100   -2.484600
C      0.503400    4.172000    1.559300
C      0.424200    3.073000    2.417500
H      0.972000    2.154200    2.163200
C     -0.365100    3.130700    3.549000
H     -0.426000    2.280500    4.212700
C     -1.094400    4.278300    3.823600
C     -1.040500    5.358400    2.959600
H     -1.625900    6.243300    3.164400
H     -1.717900    4.323300    4.704500
C     -0.245500    5.309800    1.826300
H     -0.224500    6.148700    1.145500
H      3.441400    5.385900    0.790000
H      3.260800    3.975900    1.860600
H      4.249800    3.846000   -1.041000
H      5.296200    3.711000    0.393300
C     -0.444200    1.517800   -0.727500
H     -0.886400    2.524000   -0.781700
H     -0.572600    1.040400   -1.708100
H     -1.031600    0.949300    0.003400
C      1.491900   -0.446700   -0.324600
H      2.278400   -0.894300    0.301500
H      0.545300   -0.922100   -0.050500
H      1.713100   -0.722000   -1.367900
61

Pd     1.913100    1.575800    0.120200
P      4.185300    1.730100   -0.430500
P      2.219700    3.873500    0.484800
C      4.940700    1.357900    1.192000
C      4.105000    1.063200    2.266400
C      4.646100    0.805800    3.514300
H      3.996300    0.575400    4.345900
C      6.019000    0.838700    3.695100
H      6.441300    0.635700    4.668400
C      6.854200    1.125300    2.626400
H      7.925400    1.144600    2.767600
H      3.015400    1.022800    2.109700
C      6.319900    1.384000    1.378000
H      6.972100    1.595000    0.540700
C      4.726500    3.500600   -0.607300
C      4.020400    4.338500    0.452400
C      5.314500    0.829500   -1.535000
C      5.894800    1.384700   -2.669400
H      5.733500    2.425500   -2.911100
C      6.684800    0.603100   -3.494600
H      7.141200    1.041200   -4.370800
C      6.888200   -0.735500   -3.204700
C      6.291000   -1.300600   -2.088200
H      6.438800   -2.347500   -1.866600
H      7.505500   -1.340500   -3.852300
C      5.502500   -0.524500   -1.262300
H      5.022300   -0.956200   -0.392800
C      1.468100    5.177700    1.505200
C      0.106000    5.408100    1.319500
C     -0.556100    6.341700    2.091600
H     -1.609900    6.521800    1.936600
C      0.132300    7.044200    3.068900
H     -0.383200    7.775500    3.673800
C      1.479500    6.800400    3.275900
H      2.013800    7.339500    4.045200
H     -0.422800    4.846100    0.559600
C      2.147200    5.865600    2.503800
H      3.196100    5.675100    2.680800
C      1.748700    4.439100   -1.188300
C      1.363500    3.470900   -2.113900
H      1.312400    2.415400   -1.781700
C      1.038000    3.841500   -3.407100
H      0.739800    3.091200   -4.124700
C      1.091400    5.175400   -3.778700
C      1.465300    6.141200   -2.857000
H      1.498800    7.181300   -3.148400
H      0.836000    5.465900   -4.787400
C      1.794500    5.777800   -1.564100
H      2.076700    6.531800   -0.841000
H      4.131900    5.409300    0.253700
H      4.441200    4.114300    1.439000
H      4.428400    3.843300   -1.604400
H      5.814700    3.576900   -0.516900
C      0.051200    1.444500    0.971400
H     -0.258800    0.438800    1.268400
H      0.042800    2.078200    1.871900
H     -0.701900    1.838400    0.274500
C      1.635700   -0.350800   -0.528600
H      1.932800   -1.062700    0.253100
H      0.606900   -0.580700   -0.822500
H      2.281000   -0.519000   -1.404600
61

Pd     1.636700    0.657300   -1.216100
P      4.068400    1.616200    0.555700
P      1.548700    2.750100    0.057800
C      5.621900    1.018700    1.329500
C      6.767300    1.714100    0.952000
C      8.008200    1.350800    1.438700
H      8.889800    1.896400    1.136400
C      8.117600    0.287100    2.319500
H      9.084700   -0.001200    2.704300
C      6.983800   -0.406700    2.705800
H      7.067100   -1.238600    3.390800
H      6.669400    2.548100    0.269000
C      5.741000   -0.045700    2.216200
H      4.870100   -0.606400    2.526300
C      2.730400    0.831600    1.600500
C      1.591900    1.855500    1.682900
C      4.099900    0.524900   -0.930700
C      4.642400   -0.762700   -0.898000
H      4.957600   -1.189700    0.044500
C      4.805500   -1.485800   -2.064900
H      5.237100   -2.475800   -2.025200
C      4.422800   -0.944900   -3.286500
C      3.887700    0.328700   -3.343900
H      3.624700    0.764900   -4.298500
H      4.554300   -1.517300   -4.192900
C      3.725700    1.076700   -2.175100
H      3.482300    2.139400   -2.252300
C      2.421600    4.329000    0.434000
C      3.425500    4.783000   -0.410700
C      4.046300    5.996200   -0.177200
H      4.825200    6.341400   -0.841800
C      3.667700    6.767800    0.908300
H      4.152500    7.714700    1.095500
C      2.660700    6.325800    1.750400
H      2.357500    6.929600    2.593800
H      3.726400    4.177100   -1.255800
C      2.033600    5.117300    1.510200
H      1.230500    4.791900    2.157200
C     -0.105100    3.548300    0.044000
C     -1.039600    3.529400    1.070100
H     -0.845900    2.986400    1.984100
C     -2.239300    4.206700    0.927900
H     -2.962700    4.185600    1.730500
C     -2.516400    4.907000   -0.232800
C     -1.588500    4.931200   -1.262000
H     -1.801900    5.473500   -2.171800
H     -3.455000    5.431200   -0.337200
C     -0.393400    4.254900   -1.121400
H      0.338400    4.258700   -1.922000
H      1.755400    2.556400    2.506500
H      0.633500    1.344400    1.822000
H      2.372600   -0.090900    1.105900
H      3.104600    0.593800    2.598800
C     -0.404300    0.728500   -1.365400
H     -0.577700    1.599000   -2.015700
H     -0.907800   -0.135800   -1.798000
H     -0.837300    0.927200   -0.377600
C      1.353400   -1.313000   -1.729500
H      2.332000   -1.802700   -1.653100
H      0.655600   -1.823900   -1.055600
H      0.991200   -1.419200   -2.757200
61

Pd     0.751300    2.171100    0.789100
P      2.495800    2.060000   -0.866000
P      0.324400    5.656500   -0.950500
C      3.192800    1.148400   -2.282900
C      3.739400   -0.102200   -1.997500
C      4.248300   -0.892100   -3.008800
H      4.679600   -1.855000   -2.777300
C      4.201300   -0.448800   -4.321700
H      4.598700   -1.064200   -5.115200
C      3.637900    0.781200   -4.615000
H      3.593500    1.124600   -5.638600
H      3.765000   -0.441300   -0.969100
C      3.128800    1.577100   -3.603000
H      2.690700    2.533100   -3.849800
C      2.423000    3.825500   -1.432100
C      1.761900    4.635600   -0.305100
C      3.987300    2.186000    0.191100
C      5.255000    2.366000   -0.354900
H      5.380500    2.387900   -1.429200
C      6.352000    2.506400    0.473700
H      7.334400    2.644000    0.045400
C      6.194900    2.471700    1.850800
C      4.936800    2.291600    2.399900
H      4.813500    2.259800    3.472800
H      7.055600    2.582600    2.494100
C      3.835300    2.146800    1.574000
H      2.838400    1.984300    2.005200
C     -1.026400    4.486900   -0.509100
C     -0.973000    3.168400   -0.982300
C     -2.002000    2.277800   -0.685800
H     -1.959400    1.265000   -1.066700
C     -3.089200    2.698500    0.063000
H     -3.882000    2.005200    0.302100
C     -3.167700    4.015700    0.488100
H     -4.025600    4.352200    1.052300
H     -0.191800    2.862300   -1.679900
C     -2.149500    4.906300    0.198300
H     -2.221500    5.932800    0.531200
C      0.198600    6.834100    0.451200
C      0.192400    6.422500    1.780400
H      0.224900    5.369300    2.022600
C      0.123800    7.358500    2.794500
H      0.116900    7.033300    3.824900
C      0.060400    8.710300    2.493900
C      0.063900    9.126100    1.173600
H      0.012000   10.178700    0.936300
H      0.006000    9.438200    3.290200
C      0.134200    8.190600    0.156200
H      0.137700    8.506300   -0.878300
H      1.381500    3.944600    0.493100
H      2.481600    5.316500    0.159200
H      1.814500    3.882900   -2.341700
H      3.422300    4.199600   -1.673200
C     -0.203900    2.563600    2.552700
H     -1.133400    3.102700    2.333700
H     -0.440900    1.730800    3.216300
H      0.489700    3.235600    3.090800
C      0.371200    0.193400    1.137600
H      1.066700   -0.213100    1.879000
H     -0.657200    0.010300    1.454300
H      0.547900   -0.280300    0.162200
61

Pd     0.362400   -0.090800   -0.086900
P      3.923700   -0.513600    0.624900
P      0.724100    2.263900    0.266500
C      5.072800    0.752500   -0.028400
C      5.632500    1.658000    0.871400
C      6.562800    2.585300    0.444500
H      6.983500    3.289900    1.147500
C      6.960800    2.607100   -0.883100
H      7.687800    3.332200   -1.218100
C      6.432800    1.689800   -1.775600
H      6.750500    1.695500   -2.808300
H      5.327900    1.631500    1.909300
C      5.498400    0.761000   -1.352200
H      5.096200    0.041300   -2.051800
C      2.571400    0.571800    1.354900
C      2.460400    2.027500    0.877300
C      3.055700   -1.025100   -0.919700
C      2.361600   -0.146600   -1.766500
H      2.447200    0.933300   -1.646900
C      1.693400   -0.649100   -2.879900
H      1.183900    0.032400   -3.548900
C      1.699200   -2.010300   -3.146900
C      2.393200   -2.877100   -2.319200
H      2.406700   -3.936500   -2.530300
H      1.168200   -2.391400   -4.006900
C      3.063300   -2.385800   -1.211400
H      3.600600   -3.058000   -0.555500
C      0.705400    3.967200   -0.384400
C      1.834100    4.696800   -0.736800
C      1.697300    5.969300   -1.265400
H      2.579300    6.535400   -1.528400
C      0.440700    6.517400   -1.456400
H      0.341400    7.511500   -1.866500
C     -0.690200    5.786000   -1.126300
H     -1.672600    6.207500   -1.281600
H      2.823700    4.286500   -0.595000
C     -0.557800    4.516000   -0.601900
H     -1.432800    3.931300   -0.345500
C     -0.085600    2.524300    1.888600
C     -0.803900    1.473500    2.452300
H     -0.928100    0.536900    1.892500
C     -1.372400    1.614200    3.706600
H     -1.928400    0.795900    4.140300
C     -1.231300    2.803200    4.402100
C     -0.520100    3.853300    3.842700
H     -0.410900    4.781800    4.384500
H     -1.676300    2.914500    5.380000
C      0.053300    3.716800    2.592600
H      0.606000    4.538500    2.157200
H      3.151800    2.223400    0.052200
H      2.689100    2.736500    1.679300
H      1.624000    0.014800    1.116100
H      2.682000    0.534900    2.444600
C     -1.368000   -0.109200   -1.169200
H     -1.589600   -1.057800   -1.659700
H     -2.210600    0.177900   -0.529500
H     -1.205200    0.667100   -1.930200
C     -0.013600   -2.060800    0.320600
H      0.751800   -2.330400    1.068100
H     -1.004500   -2.242000    0.749600
H      0.112900   -2.705700   -0.552800
61

Pd     0.877500    0.181500    0.747100
P      2.394700    0.342000   -1.075600
P      0.699600    2.458200    0.199500
C      3.691200    1.183600   -0.084700
C      4.752500    1.873200   -0.658100
C      5.666700    2.527300    0.147400
H      6.483100    3.074600   -0.301700
C      5.539700    2.481000    1.525800
H      6.252100    3.000400    2.149700
C      4.506600    1.761500    2.103900
H      4.417500    1.711800    3.179300
H      4.869400    1.895800   -1.733600
C      3.585400    1.111100    1.303200
H      2.743300    0.539400    1.736100
C      1.891700    1.706200   -2.236100
C      0.678700    2.431100   -1.654700
C      3.501600   -0.706200   -2.081200
C      3.937800   -0.433900   -3.371400
H      3.607000    0.453100   -3.891400
C      4.808200   -1.305500   -4.003400
H      5.146300   -1.088800   -5.006900
C      5.247500   -2.448900   -3.358300
C      4.813800   -2.727200   -2.071700
H      5.152200   -3.620400   -1.567100
H      5.925700   -3.124000   -3.859300
C      3.944000   -1.860900   -1.439500
H      3.590000   -2.066700   -0.436200
C     -0.975800    3.114500    0.454100
C     -1.988600    2.159600    0.391400
C     -3.308000    2.540000    0.537600
H     -4.095200    1.801700    0.491400
C     -3.618900    3.874200    0.755300
H     -4.649500    4.174400    0.876600
C     -2.612200    4.822900    0.826300
H     -2.859500    5.860100    1.001100
H     -1.712800    1.111500    0.246900
C     -1.287800    4.448800    0.674600
H     -0.499200    5.186400    0.733900
C      1.791400    3.841000    0.656600
C      1.953200    4.027000    2.029200
H      1.386000    3.401500    2.708600
C      2.825300    4.981700    2.511000
H      2.940600    5.123500    3.575500
C      3.564700    5.748800    1.623600
C      3.420100    5.560200    0.260200
H      3.999200    6.155700   -0.431200
H      4.257300    6.489500    1.995500
C      2.538700    4.610100   -0.225900
H      2.436500    4.479300   -1.292900
H     -0.228500    1.860100   -1.894200
H      0.556700    3.440200   -2.062200
H      2.732600    2.389300   -2.382900
H      1.627200    1.261000   -3.200500
C     -0.158500    0.240000    2.525200
H      0.438300   -0.247800    3.307600
H     -0.325700    1.284700    2.822600
H     -1.134000   -0.254600    2.487400
C      0.779100   -1.856300    0.931100
H      1.742500   -2.219900    1.320700
H     -0.010900   -2.261300    1.567600
H      0.642300   -2.264200   -0.083100
61

Pd     0.347300    0.778400    0.294100
P      2.728800    1.007900    0.545200
P      0.325500    3.789100   -0.140900
C      4.338400    1.022200   -0.309000
C      5.358600    1.935600   -0.072000
C      6.532800    1.863300   -0.801100
H      7.323900    2.576400   -0.612900
C      6.699400    0.882400   -1.764600
H      7.617700    0.834300   -2.331200
C      5.687500   -0.033700   -2.001700
H      5.815600   -0.798900   -2.751100
H      5.246500    2.701200    0.683600
C      4.512300    0.039600   -1.279000
H      3.706300   -0.658300   -1.463800
C      2.591900    2.700300    1.320300
C      1.100000    3.030900    1.388300
C      3.121500    0.036000    2.047700
C      2.050600   -0.533300    2.734000
H      1.034600   -0.437100    2.329500
C      2.267100   -1.239200    3.903500
H      1.432800   -1.678000    4.431000
C      3.554300   -1.391000    4.391500
C      4.623800   -0.836000    3.707200
H      5.628800   -0.959600    4.083800
H      3.726300   -1.947100    5.301300
C      4.412300   -0.123200    2.541000
H      5.251200    0.303400    2.009200
C      1.250800    5.363100   -0.276800
C      1.230600    5.991000   -1.522000
C      1.843400    7.214000   -1.706500
H      1.827500    7.683400   -2.679400
C      2.475500    7.840300   -0.643400
H      2.957600    8.796200   -0.784700
C      2.478000    7.238700    0.602300
H      2.959800    7.726700    1.437800
H      0.734700    5.501400   -2.350300
C      1.863500    6.012100    0.788800
H      1.870500    5.569400    1.774300
C      1.167400    2.870600   -1.510300
C      0.388800    1.920300   -2.187200
H     -0.671200    1.819900   -1.944200
C      0.942800    1.178500   -3.219200
H      0.342100    0.444500   -3.737000
C      2.259100    1.390800   -3.600400
C      3.012600    2.367000   -2.973100
H      4.029700    2.554600   -3.286300
H      2.690200    0.809700   -4.402400
C      2.473100    3.103800   -1.930900
H      3.070100    3.879100   -1.469700
H      0.518200    2.094200    1.583600
H      0.861900    3.708700    2.217300
H      3.025500    2.681100    2.327500
H      3.128100    3.443500    0.726000
C     -1.661600    0.747900    0.689300
H     -2.301700    0.137600    0.050600
H     -1.805500    0.426600    1.732500
H     -1.976600    1.799600    0.593800
C      0.098800   -1.087000   -0.508000
H      1.104600   -1.416300   -0.798600
H     -0.316700   -1.795200    0.214800
H     -0.542900   -1.055600   -1.392100
61

Pd     1.478200    0.962600    0.820000
P      3.818500    0.714900    0.189100
P      2.516800    4.942400    0.619200
C      4.505300    0.296400    1.833400
C      3.630600   -0.133300    2.827700
C      4.102300   -0.386100    4.105000
H      3.420700   -0.718500    4.874000
C      5.444800   -0.212600    4.394900
H      5.813400   -0.410700    5.390600
C      6.318300    0.219100    3.408100
H      7.365100    0.358100    3.636500
H      2.568000   -0.273900    2.592000
C      5.853300    0.477100    2.132800
H      6.533700    0.817300    1.363700
C      4.043800    2.569500    0.264500
C      2.615700    3.110300    0.313000
C      5.139400    0.153700   -0.936800
C      5.818400   -1.032800   -0.671200
H      5.612600   -1.572500    0.243300
C      6.755000   -1.515100   -1.565700
H      7.285600   -2.430100   -1.346000
C      7.009600   -0.831100   -2.743400
C      6.309200    0.328300   -3.032100
H      6.491100    0.854200   -3.958200
H      7.743400   -1.207500   -3.440500
C      5.369500    0.812300   -2.140800
H      4.811400    1.705600   -2.388300
C      0.759600    5.223900    0.164500
C     -0.206500    4.237800   -0.006100
C     -1.513100    4.595300   -0.295600
H     -2.256100    3.822300   -0.428800
C     -1.871000    5.926800   -0.413100
H     -2.892700    6.195700   -0.637400
C     -0.914600    6.914300   -0.236400
H     -1.187500    7.956200   -0.322100
H      0.023700    3.176600    0.076300
C      0.387600    6.563100    0.057900
H      1.139800    7.328200    0.204400
C      3.308000    5.434100   -0.967700
C      4.610400    5.916900   -0.915200
H      5.092300    6.032400    0.046400
C      5.283000    6.245500   -2.078500
H      6.296000    6.618000   -2.030100
C      4.654600    6.097800   -3.303600
C      3.353500    5.624400   -3.361400
H      2.861400    5.512500   -4.316900
H      5.176800    6.354600   -4.213600
C      2.680600    5.291900   -2.200200
H      1.663100    4.928700   -2.251900
H      2.121700    2.890500   -0.654400
H      2.075800    2.603100    1.161800
H      4.581500    2.958800   -0.604000
H      4.602700    2.841400    1.166000
C     -0.180900    1.235400    1.998700
H     -1.126100    1.265200    1.449800
H     -0.248100    0.450900    2.761000
H     -0.030800    2.203800    2.502800
C      0.714900   -0.853100    0.321100
H      0.618800   -0.779600   -0.774400
H      1.468500   -1.612600    0.567900
H     -0.245000   -1.143400    0.748000
61

Pd     0.684500    0.642900   -0.199200
P      2.997100    0.433100    0.076200
P      1.156400    2.817300    0.539300
C      4.292700   -0.031500   -1.117300
C      5.657400    0.151200   -0.916100
C      6.553900   -0.198100   -1.909800
H      7.613400   -0.058200   -1.748900
C      6.100200   -0.721800   -3.109900
H      6.807000   -0.990500   -3.881200
C      4.742100   -0.890200   -3.322400
H      4.386000   -1.287300   -4.261600
H      6.023600    0.571200    0.009800
C      3.843000   -0.542100   -2.331400
H      2.776600   -0.654300   -2.487500
C      3.768500    1.945100    0.854300
C      2.708400    2.777700    1.566500
C      3.145700   -0.755400    1.452500
C      4.286200   -1.495300    1.738900
H      5.159700   -1.413200    1.107600
C      4.293200   -2.357400    2.821700
H      5.178300   -2.938200    3.038400
C      3.170100   -2.482200    3.622600
C      2.026900   -1.753000    3.334900
H      1.146400   -1.862300    3.951000
H      3.182000   -3.158500    4.464900
C      2.009900   -0.896900    2.249700
H      1.095200   -0.345300    1.988600
C      0.304000    4.299800    1.158900
C     -0.493000    5.018800    0.271000
C     -1.213200    6.112900    0.709100
H     -1.821800    6.671400    0.012800
C     -1.158100    6.491000    2.041400
H     -1.720600    7.346700    2.384400
C     -0.389400    5.763600    2.934700
H     -0.355900    6.050000    3.976100
H     -0.537600    4.713600   -0.766700
C      0.333400    4.667000    2.500100
H      0.920000    4.095500    3.205700
C      1.834900    3.434700   -1.041200
C      2.538300    4.629100   -1.151300
H      2.654400    5.269000   -0.286600
C      3.081900    4.996800   -2.368800
H      3.632200    5.923000   -2.454200
C      2.925300    4.180200   -3.478000
C      2.208600    2.998500   -3.377700
H      2.078500    2.369000   -4.245900
H      3.358800    4.470200   -4.423900
C      1.660100    2.625900   -2.163200
H      1.068400    1.696100   -2.051600
H      3.067600    3.793300    1.760900
H      2.449400    2.310700    2.523700
H      4.562800    1.651600    1.548000
H      4.209700    2.525000    0.036200
C     -1.352500    0.830500   -0.182100
H     -1.935000    0.079300   -0.720500
H     -1.674300    0.819600    0.872100
H     -1.612000    1.817000   -0.597800
C      0.387100   -1.256100   -0.931400
H      1.312100   -1.847300   -0.862700
H     -0.385500   -1.798100   -0.376400
H      0.082200   -1.219500   -1.986600
