52
ancillary ligand dppe from Andy Vitek paper
P 0.06879868 -1.09483531 0.31377337
P 0.26130551 1.87346962 -0.13249131
C -0.19454022 -1.65230279 2.03500405
C -1.15241619 -2.62436426 2.35724633
C -1.36939439 -2.98556501 3.68544591
H -2.10991489 -3.74406043 3.92448473
C -0.63358901 -2.37483147 4.70453078
H -0.80436690 -2.65751571 5.73956051
C 0.32372759 -1.40792454 4.39252891
H 0.90212083 -0.93663111 5.18188662
H -1.71702819 -3.10851633 1.56415294
C 0.54682966 -1.05007194 3.06217664
H 1.30365821 -0.31022709 2.81056770
C -1.52905196 -0.21046949 -0.09843421
C -1.40489868 1.22680428 0.42400639
C 0.09988713 -2.55789544 -0.75991398
C -0.15340376 -2.38194626 -2.12762802
H -0.49600781 -1.42550082 -2.51117168
C 0.08727335 -3.41927040 -3.02548525
H -0.10246386 -3.26971319 -4.08486808
C 0.60297918 -4.63375238 -2.57067189
C 0.86431984 -4.81020265 -1.21193141
H 1.29016614 -5.74399107 -0.85674746
H 0.81968102 -5.43196427 -3.27474963
C 0.61321967 -3.77898191 -0.30811406
H 0.85580382 -3.91183658 0.73993867
C 0.48101624 3.49028267 0.68272380
C -0.22424091 3.83939942 1.84344439
C 0.03312783 5.04926156 2.48953147
H -0.52564647 5.30922106 3.38455360
C 0.99947110 5.91973689 1.98503618
H 1.19839109 6.86179558 2.48864828
C 1.71004176 5.57694342 0.83194622
H 2.46900011 6.24579940 0.43645494
H -0.98065207 3.17752825 2.25285139
C 1.45793444 4.36942021 0.18423780
H 2.02162538 4.10622835 -0.70474199
C -0.03928161 2.22703521 -1.90355067
C 0.47557175 1.34104538 -2.86092900
H 1.09100230 0.49924147 -2.55437310
C 0.22761723 1.54518469 -4.21813128
H 0.64446744 0.85819145 -4.94919953
C -0.53023954 2.64139051 -4.63066647
C -1.04352451 3.53126039 -3.68334434
H -1.62729817 4.38996987 -4.00347432
H -0.71374960 2.80854767 -5.68860075
C -0.80127732 3.32531213 -2.32535292
H -1.19072552 4.02768354 -1.59296859
H -1.42079739 1.22155579 1.51958125
H -2.21854409 1.86728614 0.06857169
H -1.64857849 -0.20399010 -1.18670557
H -2.39148125 -0.73049366 0.33037190
